10
formic_acid_dimer.log	Energy: -238155.1916938
C          2.12399       -0.22275        0.00219
O          1.25764       -1.09534       -0.03767
O          1.71416        1.07077        0.01796
H          3.22302       -0.31388        0.02838
H          0.74467        1.12248       -0.00573
C         -2.13901        0.18274       -0.01751
O         -1.35350        1.12953       -0.00726
O         -1.61696       -1.06874        0.03430
H         -3.24113        0.17485       -0.06355
H         -0.64726       -1.03322        0.07411
