# b3lyp geom=connectivity

title

0 1
 N                 -1.53657000   -0.05467000    0.00000000
 H                 -2.11576000    0.13155000   -0.81420000
 H                 -2.11576000    0.13155000    0.81420000
 H                 -0.79507000    0.64390000    0.00000000
 N                  1.53657000    0.05467000    0.00000000
 H                  2.11576000   -0.13155000   -0.81420000
 H                  0.79507000   -0.64390000    0.00000000
 H                  2.11576000   -0.13155000    0.81420000

 1 2 1.0 3 1.0 4 1.0
 2
 3
 4
 5 6 1.0 7 1.0 8 1.0
 6
 7
 8

